1

   Abaqus 2022                                  Date 26-Apr-2024   Time 13:31:44
   For use by Supplied by Team-SolidSQUAD under license from Dassault Systemes or its subsidiary.

                                                                                 
                                                                                 
 STEP    1     INCREMENT     1     STEP TIME    0.00    


                        S T E P       1     S T A T I C   A N A L Y S I S


                                                                                          

     AUTOMATIC TIME CONTROL WITH -
          A SUGGESTED INITIAL TIME INCREMENT OF                1.000E-02
          AND A TOTAL TIME PERIOD OF                            1.00    
          THE MINIMUM TIME INCREMENT ALLOWED IS                1.000E-05
          THE MAXIMUM TIME INCREMENT ALLOWED IS                0.100    

     LINEAR EQUATION SOLVER TYPE         DIRECT SPARSE

 CONVERGENCE TOLERANCE PARAMETERS FOR FORCE    
     CRITERION FOR RESIDUAL FORCE     FOR A NONLINEAR PROBLEM          5.000E-03
     CRITERION FOR DISP.    CORRECTION IN A NONLINEAR PROBLEM          1.000E-02
     INITIAL VALUE OF TIME AVERAGE FORCE                               1.000E-02
     AVERAGE FORCE     IS TIME AVERAGE FORCE    
     ALTERNATE CRIT. FOR RESIDUAL FORCE     FOR A NONLINEAR PROBLEM    2.000E-02
     CRITERION FOR ZERO FORCE     RELATIVE TO TIME AVRG. FORCE         1.000E-05
     CRITERION FOR RESIDUAL FORCE     WHEN THERE IS ZERO FLUX          1.000E-05
     CRITERION FOR DISP.    CORRECTION WHEN THERE IS ZERO FLUX         1.000E-03
     CRITERION FOR RESIDUAL FORCE     FOR A LINEAR INCREMENT           1.000E-08
     FIELD CONVERSION RATIO                                             1.00    
     CRITERION FOR ZERO FORCE     REL. TO TIME AVRG. MAX. FORCE        1.000E-05
     CRITERION FOR ZERO DISP.    RELATIVE TO CHARACTERISTIC LENGTH     1.000E-08

     VOLUMETRIC STRAIN COMPATIBILITY TOLERANCE FOR HYBRID SOLIDS       1.000E-05
     AXIAL STRAIN COMPATIBILITY TOLERANCE FOR HYBRID BEAMS             1.000E-05
     TRANS. SHEAR STRAIN COMPATIBILITY TOLERANCE FOR HYBRID BEAMS      1.000E-05
     SOFT CONTACT CONSTRAINT COMPATIBILITY TOLERANCE FOR P>P0          5.000E-03
     SOFT CONTACT CONSTRAINT COMPATIBILITY TOLERANCE FOR P=0.0         0.100    
     CONTACT FORCE ERROR TOLERANCE FOR CONVERT SDI=YES                 1.00    
     DISPLACEMENT COMPATIBILITY TOLERANCE FOR DCOUP ELEMENTS           1.000E-05
     ROTATION COMPATIBILITY TOLERANCE FOR DCOUP ELEMENTS               1.000E-05

 EQUILIBRIUM WILL BE CHECKED FOR SEVERE DISCONTINUITY ITERATIONS

 TIME INCREMENTATION CONTROL PARAMETERS:
     FIRST EQUILIBRIUM ITERATION FOR CONSECUTIVE DIVERGENCE CHECK              4
     EQUILIBRIUM ITERATION AT WHICH LOG. CONVERGENCE RATE CHECK BEGINS         8
     EQUILIBRIUM ITERATION AFTER WHICH ALTERNATE RESIDUAL IS USED              9
     MAXIMUM EQUILIBRIUM ITERATIONS ALLOWED                                   16
     EQUILIBRIUM ITERATION COUNT FOR CUT-BACK IN NEXT INCREMENT               10
     MAXIMUM EQUILIB. ITERS IN TWO INCREMENTS FOR TIME INCREMENT INCREASE      4
     MAXIMUM ITERATIONS FOR SEVERE DISCONTINUITIES                            50
     MAXIMUM ATTEMPTS ALLOWED IN AN INCREMENT                                  5
     MAXIMUM DISCON. ITERS IN TWO INCREMENTS FOR TIME INCREMENT INCREASE      50
     MAXIMUM CONTACT AUGMENTATIONS FOR *SURFACE BEHAVIOR,AUGMENTED LAGRANGE   50
     CUT-BACK FACTOR AFTER DIVERGENCE                                 0.2500    
     CUT-BACK FACTOR FOR TOO SLOW CONVERGENCE                         0.5000    
     CUT-BACK FACTOR AFTER TOO MANY EQUILIBRIUM ITERATIONS            0.7500    
     CUT-BACK FACTOR AFTER TOO MANY SEVERE DISCONTINUITY ITERATIONS   0.2500    
     CUT-BACK FACTOR AFTER PROBLEMS IN ELEMENT ASSEMBLY               0.2500    
     INCREASE FACTOR AFTER TWO INCREMENTS THAT CONVERGE QUICKLY        1.500    
     MAX. TIME INCREMENT INCREASE FACTOR ALLOWED                       1.500    
     MAX. TIME INCREMENT INCREASE FACTOR ALLOWED (DYNAMICS)            1.250    
     MAX. TIME INCREMENT INCREASE FACTOR ALLOWED (DIFFUSION)           2.000    
     MINIMUM TIME INCREMENT RATIO FOR EXTRAPOLATION TO OCCUR          0.1000    
     MAX. RATIO OF TIME INCREMENT TO STABILITY LIMIT                   1.000    
     FRACTION OF STABILITY LIMIT FOR NEW TIME INCREMENT               0.9500    
     TIME INCREMENT INCREASE FACTOR BEFORE A TIME POINT                1.000    
     GLOBAL STABILIZATION CONTROL IS NOT USED

          PRINT OF INCREMENT NUMBER, TIME, ETC., EVERY    1  INCREMENTS

     THE MAXIMUM NUMBER OF INCREMENTS IN THIS STEP IS                     200

          LARGE DISPLACEMENT THEORY WILL BE USED

     LINEAR EXTRAPOLATION WILL BE USED

     CHARACTERISTIC ELEMENT LENGTH      1.00    

     DETAILS REGARDING ACTUAL SOLUTION WAVEFRONT REQUESTED

     DETAILED OUTPUT OF DIAGNOSTICS TO DATABASE REQUESTED

     PRINT OF INCREMENT NUMBER, TIME, ETC., TO THE MESSAGE FILE EVERY     1  INCREMENTS

     COLLECTING MODEL CONSTRAINT INFORMATION FOR OVERCONSTRAINT CHECKS

     COLLECTING STEP CONSTRAINT INFORMATION FOR OVERCONSTRAINT CHECKS


  INCREMENT     1 STARTS. ATTEMPT NUMBER  1, TIME INCREMENT  1.000E-02
 
	SYMMETRIC DIRECT SPARSE SOLVER RUNNING ON
 	1 HOST:        1 MPI RANK  x 1 THREAD
 	NUMBER OF EQUATIONS:     24
 	NUMBER OF RHS:           1
 	NUMBER OF FLOPS:         4.900e+03

     CHECK POINT   START OF SOLVER    

     CHECK POINT  END OF SOLVER       

       ELAPSED USER TIME (SEC)      =   0.0000    
       ELAPSED SYSTEM TIME (SEC)    =  1.00000E-02
       ELAPSED TOTAL CPU TIME (SEC) =  1.00000E-02
       ELAPSED WALLCLOCK TIME (SEC) =          0

               CONVERGENCE CHECKS FOR EQUILIBRIUM ITERATION     1


 AVERAGE FORCE                      4.860E-04   TIME AVG. FORCE       4.860E-04
 LARGEST RESIDUAL FORCE            -2.139E-04   AT NODE          1   DOF  1
 LARGEST INCREMENT OF DISP.         1.000E-03   AT NODE          1   DOF  2
 LARGEST CORRECTION TO DISP.        1.000E-03   AT NODE          1   DOF  2
          FORCE     EQUILIBRIUM NOT ACHIEVED WITHIN TOLERANCE.
 
	SYMMETRIC DIRECT SPARSE SOLVER RUNNING ON
 	1 HOST:        1 MPI RANK  x 1 THREAD
 	NUMBER OF EQUATIONS:     24
 	NUMBER OF RHS:           1
 	NUMBER OF FLOPS:         4.900e+03

     CHECK POINT   START OF SOLVER    

     CHECK POINT  END OF SOLVER       

       ELAPSED USER TIME (SEC)      =   0.0000    
       ELAPSED SYSTEM TIME (SEC)    =   0.0000    
       ELAPSED TOTAL CPU TIME (SEC) =   0.0000    
       ELAPSED WALLCLOCK TIME (SEC) =          0

               CONVERGENCE CHECKS FOR EQUILIBRIUM ITERATION     2


 AVERAGE FORCE                      2.778E-04   TIME AVG. FORCE       2.778E-04
 LARGEST RESIDUAL FORCE            -3.256E-06   AT NODE          4   DOF  1
 LARGEST INCREMENT OF DISP.         1.000E-03   AT NODE          1   DOF  2
 LARGEST CORRECTION TO DISP.       -2.875E-06   AT NODE          3   DOF  1
          FORCE     EQUILIBRIUM NOT ACHIEVED WITHIN TOLERANCE.
 
	SYMMETRIC DIRECT SPARSE SOLVER RUNNING ON
 	1 HOST:        1 MPI RANK  x 1 THREAD
 	NUMBER OF EQUATIONS:     24
 	NUMBER OF RHS:           1
 	NUMBER OF FLOPS:         4.900e+03

     CHECK POINT   START OF SOLVER    

     CHECK POINT  END OF SOLVER       

       ELAPSED USER TIME (SEC)      =   0.0000    
       ELAPSED SYSTEM TIME (SEC)    =   0.0000    
       ELAPSED TOTAL CPU TIME (SEC) =   0.0000    
       ELAPSED WALLCLOCK TIME (SEC) =          0

               CONVERGENCE CHECKS FOR EQUILIBRIUM ITERATION     3


 AVERAGE FORCE                      2.776E-04   TIME AVG. FORCE       2.776E-04
 LARGEST RESIDUAL FORCE            -2.878E-06   AT NODE          3   DOF  1
 LARGEST INCREMENT OF DISP.         1.000E-03   AT NODE          1   DOF  2
 LARGEST CORRECTION TO DISP.       -2.251E-06   AT NODE          4   DOF  1
          FORCE     EQUILIBRIUM NOT ACHIEVED WITHIN TOLERANCE.
 
	SYMMETRIC DIRECT SPARSE SOLVER RUNNING ON
 	1 HOST:        1 MPI RANK  x 1 THREAD
 	NUMBER OF EQUATIONS:     24
 	NUMBER OF RHS:           1
 	NUMBER OF FLOPS:         4.900e+03

     CHECK POINT   START OF SOLVER    

     CHECK POINT  END OF SOLVER       

       ELAPSED USER TIME (SEC)      =   0.0000    
       ELAPSED SYSTEM TIME (SEC)    =   0.0000    
       ELAPSED TOTAL CPU TIME (SEC) =   0.0000    
       ELAPSED WALLCLOCK TIME (SEC) =          0

               CONVERGENCE CHECKS FOR EQUILIBRIUM ITERATION     4


 AVERAGE FORCE                      2.774E-04   TIME AVG. FORCE       2.774E-04
 LARGEST RESIDUAL FORCE            -2.634E-06   AT NODE          3   DOF  1
 LARGEST INCREMENT OF DISP.         1.000E-03   AT NODE          1   DOF  2
 LARGEST CORRECTION TO DISP.       -2.060E-06   AT NODE          1   DOF  1
          FORCE     EQUILIBRIUM NOT ACHIEVED WITHIN TOLERANCE.
 
	SYMMETRIC DIRECT SPARSE SOLVER RUNNING ON
 	1 HOST:        1 MPI RANK  x 1 THREAD
 	NUMBER OF EQUATIONS:     24
 	NUMBER OF RHS:           1
 	NUMBER OF FLOPS:         4.900e+03

     CHECK POINT   START OF SOLVER    

     CHECK POINT  END OF SOLVER       

       ELAPSED USER TIME (SEC)      =  1.00000E-02
       ELAPSED SYSTEM TIME (SEC)    =   0.0000    
       ELAPSED TOTAL CPU TIME (SEC) =  1.00000E-02
       ELAPSED WALLCLOCK TIME (SEC) =          0

               CONVERGENCE CHECKS FOR EQUILIBRIUM ITERATION     5


 AVERAGE FORCE                      2.773E-04   TIME AVG. FORCE       2.773E-04
 LARGEST RESIDUAL FORCE            -2.411E-06   AT NODE          3   DOF  1
 LARGEST INCREMENT OF DISP.         1.000E-03   AT NODE          1   DOF  2
 LARGEST CORRECTION TO DISP.       -1.885E-06   AT NODE          3   DOF  1
          FORCE     EQUILIBRIUM NOT ACHIEVED WITHIN TOLERANCE.
 
	SYMMETRIC DIRECT SPARSE SOLVER RUNNING ON
 	1 HOST:        1 MPI RANK  x 1 THREAD
 	NUMBER OF EQUATIONS:     24
 	NUMBER OF RHS:           1
 	NUMBER OF FLOPS:         4.900e+03

     CHECK POINT   START OF SOLVER    

     CHECK POINT  END OF SOLVER       

       ELAPSED USER TIME (SEC)      =   0.0000    
       ELAPSED SYSTEM TIME (SEC)    =   0.0000    
       ELAPSED TOTAL CPU TIME (SEC) =   0.0000    
       ELAPSED WALLCLOCK TIME (SEC) =          0

               CONVERGENCE CHECKS FOR EQUILIBRIUM ITERATION     6


 AVERAGE FORCE                      2.771E-04   TIME AVG. FORCE       2.771E-04
 LARGEST RESIDUAL FORCE            -2.206E-06   AT NODE          3   DOF  1
 LARGEST INCREMENT OF DISP.         1.000E-03   AT NODE          1   DOF  2
 LARGEST CORRECTION TO DISP.       -1.726E-06   AT NODE          3   DOF  1
          FORCE     EQUILIBRIUM NOT ACHIEVED WITHIN TOLERANCE.
 
	SYMMETRIC DIRECT SPARSE SOLVER RUNNING ON
 	1 HOST:        1 MPI RANK  x 1 THREAD
 	NUMBER OF EQUATIONS:     24
 	NUMBER OF RHS:           1
 	NUMBER OF FLOPS:         4.900e+03

     CHECK POINT   START OF SOLVER    

     CHECK POINT  END OF SOLVER       

       ELAPSED USER TIME (SEC)      =   0.0000    
       ELAPSED SYSTEM TIME (SEC)    =   0.0000    
       ELAPSED TOTAL CPU TIME (SEC) =   0.0000    
       ELAPSED WALLCLOCK TIME (SEC) =          0

               CONVERGENCE CHECKS FOR EQUILIBRIUM ITERATION     7


 AVERAGE FORCE                      2.770E-04   TIME AVG. FORCE       2.770E-04
 LARGEST RESIDUAL FORCE            -2.019E-06   AT NODE          3   DOF  1
 LARGEST INCREMENT OF DISP.         1.000E-03   AT NODE          1   DOF  2
 LARGEST CORRECTION TO DISP.       -1.579E-06   AT NODE          3   DOF  1
          FORCE     EQUILIBRIUM NOT ACHIEVED WITHIN TOLERANCE.
 
	SYMMETRIC DIRECT SPARSE SOLVER RUNNING ON
 	1 HOST:        1 MPI RANK  x 1 THREAD
 	NUMBER OF EQUATIONS:     24
 	NUMBER OF RHS:           1
 	NUMBER OF FLOPS:         4.900e+03

     CHECK POINT   START OF SOLVER    

     CHECK POINT  END OF SOLVER       

       ELAPSED USER TIME (SEC)      =   0.0000    
       ELAPSED SYSTEM TIME (SEC)    =   0.0000    
       ELAPSED TOTAL CPU TIME (SEC) =   0.0000    
       ELAPSED WALLCLOCK TIME (SEC) =          0

               CONVERGENCE CHECKS FOR EQUILIBRIUM ITERATION     8


 AVERAGE FORCE                      2.769E-04   TIME AVG. FORCE       2.769E-04
 LARGEST RESIDUAL FORCE            -1.848E-06   AT NODE          3   DOF  1
 LARGEST INCREMENT OF DISP.         1.000E-03   AT NODE          1   DOF  2
 LARGEST CORRECTION TO DISP.       -1.446E-06   AT NODE          3   DOF  1
          FORCE     EQUILIBRIUM NOT ACHIEVED WITHIN TOLERANCE.
 
	SYMMETRIC DIRECT SPARSE SOLVER RUNNING ON
 	1 HOST:        1 MPI RANK  x 1 THREAD
 	NUMBER OF EQUATIONS:     24
 	NUMBER OF RHS:           1
 	NUMBER OF FLOPS:         4.900e+03

     CHECK POINT   START OF SOLVER    

     CHECK POINT  END OF SOLVER       

       ELAPSED USER TIME (SEC)      =   0.0000    
       ELAPSED SYSTEM TIME (SEC)    =   0.0000    
       ELAPSED TOTAL CPU TIME (SEC) =   0.0000    
       ELAPSED WALLCLOCK TIME (SEC) =          0

               CONVERGENCE CHECKS FOR EQUILIBRIUM ITERATION     9


 AVERAGE FORCE                      2.768E-04   TIME AVG. FORCE       2.768E-04
 LARGEST RESIDUAL FORCE            -1.692E-06   AT NODE          3   DOF  1
 LARGEST INCREMENT OF DISP.         1.000E-03   AT NODE          1   DOF  2
 LARGEST CORRECTION TO DISP.       -1.323E-06   AT NODE          1   DOF  1
          FORCE     EQUILIBRIUM NOT ACHIEVED WITHIN TOLERANCE.
 
	SYMMETRIC DIRECT SPARSE SOLVER RUNNING ON
 	1 HOST:        1 MPI RANK  x 1 THREAD
 	NUMBER OF EQUATIONS:     24
 	NUMBER OF RHS:           1
 	NUMBER OF FLOPS:         4.900e+03

     CHECK POINT   START OF SOLVER    

     CHECK POINT  END OF SOLVER       

       ELAPSED USER TIME (SEC)      =   0.0000    
       ELAPSED SYSTEM TIME (SEC)    =   0.0000    
       ELAPSED TOTAL CPU TIME (SEC) =   0.0000    
       ELAPSED WALLCLOCK TIME (SEC) =          0

               CONVERGENCE CHECKS FOR EQUILIBRIUM ITERATION    10


 AVERAGE FORCE                      2.767E-04   TIME AVG. FORCE       2.767E-04
 LARGEST RESIDUAL FORCE            -1.548E-06   AT NODE          3   DOF  1
 LARGEST INCREMENT OF DISP.         1.000E-03   AT NODE          1   DOF  2
 LARGEST CORRECTION TO DISP.       -1.211E-06   AT NODE          3   DOF  1
          THE FORCE     EQUILIBRIUM EQUATIONS HAVE CONVERGED BASED ON ALTERNATIVE
          RESIDUAL CRITERION
 

 ***WARNING: FORCE EQUILIBRIUM ACCEPTED USING THE ALTERNATE TOLERANCE.

 ITERATION SUMMARY FOR THE INCREMENT:  10 TOTAL ITERATIONS, OF WHICH
   0 ARE SEVERE DISCONTINUITY ITERATIONS AND 10 ARE EQUILIBRIUM ITERATIONS.

 TIME INCREMENT COMPLETED  1.000E-02,  FRACTION OF STEP COMPLETED  1.000E-02
 STEP TIME COMPLETED       1.000E-02,  TOTAL TIME COMPLETED        1.000E-02


  INCREMENT     2 STARTS. ATTEMPT NUMBER  1, TIME INCREMENT  1.000E-02
 
	SYMMETRIC DIRECT SPARSE SOLVER RUNNING ON
 	1 HOST:        1 MPI RANK  x 1 THREAD
 	NUMBER OF EQUATIONS:     24
 	NUMBER OF RHS:           1
 	NUMBER OF FLOPS:         4.900e+03

     CHECK POINT   START OF SOLVER    

     CHECK POINT  END OF SOLVER       

       ELAPSED USER TIME (SEC)      =  1.00000E-02
       ELAPSED SYSTEM TIME (SEC)    =   0.0000    
       ELAPSED TOTAL CPU TIME (SEC) =  1.00000E-02
       ELAPSED WALLCLOCK TIME (SEC) =          0

               CONVERGENCE CHECKS FOR EQUILIBRIUM ITERATION     1


 AVERAGE FORCE                      5.563E-04   TIME AVG. FORCE       4.165E-04
 LARGEST RESIDUAL FORCE            -2.976E-06   AT NODE          7   DOF  3
 LARGEST INCREMENT OF DISP.         1.000E-03   AT NODE          1   DOF  2
 LARGEST CORRECTION TO DISP.       -2.988E-06   AT NODE          7   DOF  3
          FORCE     EQUILIBRIUM NOT ACHIEVED WITHIN TOLERANCE.
 
	SYMMETRIC DIRECT SPARSE SOLVER RUNNING ON
 	1 HOST:        1 MPI RANK  x 1 THREAD
 	NUMBER OF EQUATIONS:     24
 	NUMBER OF RHS:           1
 	NUMBER OF FLOPS:         4.900e+03

     CHECK POINT   START OF SOLVER    

     CHECK POINT  END OF SOLVER       

       ELAPSED USER TIME (SEC)      =   0.0000    
       ELAPSED SYSTEM TIME (SEC)    =   0.0000    
       ELAPSED TOTAL CPU TIME (SEC) =   0.0000    
       ELAPSED WALLCLOCK TIME (SEC) =          0

               CONVERGENCE CHECKS FOR EQUILIBRIUM ITERATION     2


 AVERAGE FORCE                      5.562E-04   TIME AVG. FORCE       4.164E-04
 LARGEST RESIDUAL FORCE            -2.579E-06   AT NODE          3   DOF  1
 LARGEST INCREMENT OF DISP.         1.000E-03   AT NODE          1   DOF  2
 LARGEST CORRECTION TO DISP.       -2.036E-06   AT NODE          7   DOF  3
          FORCE     EQUILIBRIUM NOT ACHIEVED WITHIN TOLERANCE.
 
	SYMMETRIC DIRECT SPARSE SOLVER RUNNING ON
 	1 HOST:        1 MPI RANK  x 1 THREAD
 	NUMBER OF EQUATIONS:     24
 	NUMBER OF RHS:           1
 	NUMBER OF FLOPS:         4.900e+03

     CHECK POINT   START OF SOLVER    

     CHECK POINT  END OF SOLVER       

       ELAPSED USER TIME (SEC)      =   0.0000    
       ELAPSED SYSTEM TIME (SEC)    =   0.0000    
       ELAPSED TOTAL CPU TIME (SEC) =   0.0000    
       ELAPSED WALLCLOCK TIME (SEC) =          1

               CONVERGENCE CHECKS FOR EQUILIBRIUM ITERATION     3


 AVERAGE FORCE                      5.560E-04   TIME AVG. FORCE       4.163E-04
 LARGEST RESIDUAL FORCE            -2.347E-06   AT NODE          1   DOF  1
 LARGEST INCREMENT OF DISP.         1.000E-03   AT NODE          1   DOF  2
 LARGEST CORRECTION TO DISP.       -1.847E-06   AT NODE          4   DOF  3
          FORCE     EQUILIBRIUM NOT ACHIEVED WITHIN TOLERANCE.
 
	SYMMETRIC DIRECT SPARSE SOLVER RUNNING ON
 	1 HOST:        1 MPI RANK  x 1 THREAD
 	NUMBER OF EQUATIONS:     24
 	NUMBER OF RHS:           1
 	NUMBER OF FLOPS:         4.900e+03

     CHECK POINT   START OF SOLVER    

     CHECK POINT  END OF SOLVER       

       ELAPSED USER TIME (SEC)      =   0.0000    
       ELAPSED SYSTEM TIME (SEC)    =   0.0000    
       ELAPSED TOTAL CPU TIME (SEC) =   0.0000    
       ELAPSED WALLCLOCK TIME (SEC) =          0

               CONVERGENCE CHECKS FOR EQUILIBRIUM ITERATION     4


 AVERAGE FORCE                      5.559E-04   TIME AVG. FORCE       4.163E-04
 LARGEST RESIDUAL FORCE            -2.131E-06   AT NODE          1   DOF  1
 LARGEST INCREMENT OF DISP.         1.000E-03   AT NODE          1   DOF  2
 LARGEST CORRECTION TO DISP.       -1.681E-06   AT NODE          3   DOF  3
          FORCE     EQUILIBRIUM NOT ACHIEVED WITHIN TOLERANCE.
 
	SYMMETRIC DIRECT SPARSE SOLVER RUNNING ON
 	1 HOST:        1 MPI RANK  x 1 THREAD
 	NUMBER OF EQUATIONS:     24
 	NUMBER OF RHS:           1
 	NUMBER OF FLOPS:         4.900e+03

     CHECK POINT   START OF SOLVER    

     CHECK POINT  END OF SOLVER       

       ELAPSED USER TIME (SEC)      =  1.00000E-02
       ELAPSED SYSTEM TIME (SEC)    =   0.0000    
       ELAPSED TOTAL CPU TIME (SEC) =  1.00000E-02
       ELAPSED WALLCLOCK TIME (SEC) =          0

               CONVERGENCE CHECKS FOR EQUILIBRIUM ITERATION     5


 AVERAGE FORCE                      5.557E-04   TIME AVG. FORCE       4.162E-04
 LARGEST RESIDUAL FORCE            -1.937E-06   AT NODE          2   DOF  1
 LARGEST INCREMENT OF DISP.         1.000E-03   AT NODE          1   DOF  2
 LARGEST CORRECTION TO DISP.       -1.526E-06   AT NODE          8   DOF  3
          THE FORCE     EQUILIBRIUM EQUATIONS HAVE CONVERGED

 ITERATION SUMMARY FOR THE INCREMENT:   5 TOTAL ITERATIONS, OF WHICH
   0 ARE SEVERE DISCONTINUITY ITERATIONS AND  5 ARE EQUILIBRIUM ITERATIONS.

 TIME INCREMENT COMPLETED  1.000E-02,  FRACTION OF STEP COMPLETED  2.000E-02
 STEP TIME COMPLETED       2.000E-02,  TOTAL TIME COMPLETED        2.000E-02


  INCREMENT     3 STARTS. ATTEMPT NUMBER  1, TIME INCREMENT  1.000E-02
 
	SYMMETRIC DIRECT SPARSE SOLVER RUNNING ON
 	1 HOST:        1 MPI RANK  x 1 THREAD
 	NUMBER OF EQUATIONS:     24
 	NUMBER OF RHS:           1
 	NUMBER OF FLOPS:         4.900e+03

     CHECK POINT   START OF SOLVER    

     CHECK POINT  END OF SOLVER       

       ELAPSED USER TIME (SEC)      =   0.0000    
       ELAPSED SYSTEM TIME (SEC)    =   0.0000    
       ELAPSED TOTAL CPU TIME (SEC) =   0.0000    
       ELAPSED WALLCLOCK TIME (SEC) =          0

               CONVERGENCE CHECKS FOR EQUILIBRIUM ITERATION     1


 AVERAGE FORCE                      8.377E-04   TIME AVG. FORCE       5.567E-04
 LARGEST RESIDUAL FORCE            -2.271E-06   AT NODE          8   DOF  3
 LARGEST INCREMENT OF DISP.         1.000E-03   AT NODE          1   DOF  2
 LARGEST CORRECTION TO DISP.       -2.435E-06   AT NODE          4   DOF  3
          THE FORCE     EQUILIBRIUM EQUATIONS HAVE CONVERGED

 ITERATION SUMMARY FOR THE INCREMENT:   1 TOTAL ITERATIONS, OF WHICH
   0 ARE SEVERE DISCONTINUITY ITERATIONS AND  1 ARE EQUILIBRIUM ITERATIONS.

 TIME INCREMENT COMPLETED  1.000E-02,  FRACTION OF STEP COMPLETED  3.000E-02
 STEP TIME COMPLETED       3.000E-02,  TOTAL TIME COMPLETED        3.000E-02


  INCREMENT     4 STARTS. ATTEMPT NUMBER  1, TIME INCREMENT  1.000E-02
 
	SYMMETRIC DIRECT SPARSE SOLVER RUNNING ON
 	1 HOST:        1 MPI RANK  x 1 THREAD
 	NUMBER OF EQUATIONS:     24
 	NUMBER OF RHS:           1
 	NUMBER OF FLOPS:         4.900e+03

     CHECK POINT   START OF SOLVER    

     CHECK POINT  END OF SOLVER       

       ELAPSED USER TIME (SEC)      =   0.0000    
       ELAPSED SYSTEM TIME (SEC)    =   0.0000    
       ELAPSED TOTAL CPU TIME (SEC) =   0.0000    
       ELAPSED WALLCLOCK TIME (SEC) =          0

               CONVERGENCE CHECKS FOR EQUILIBRIUM ITERATION     1


 AVERAGE FORCE                      1.123E-03   TIME AVG. FORCE       6.983E-04
 LARGEST RESIDUAL FORCE            -2.207E-06   AT NODE          8   DOF  3
 LARGEST INCREMENT OF DISP.         1.000E-03   AT NODE          1   DOF  2
 LARGEST CORRECTION TO DISP.       -2.384E-06   AT NODE          8   DOF  3
          THE FORCE     EQUILIBRIUM EQUATIONS HAVE CONVERGED
          TIME INCREMENT MAY NOW INCREASE TO    1.500E-02

 ITERATION SUMMARY FOR THE INCREMENT:   1 TOTAL ITERATIONS, OF WHICH
   0 ARE SEVERE DISCONTINUITY ITERATIONS AND  1 ARE EQUILIBRIUM ITERATIONS.

 TIME INCREMENT COMPLETED  1.000E-02,  FRACTION OF STEP COMPLETED  4.000E-02
 STEP TIME COMPLETED       4.000E-02,  TOTAL TIME COMPLETED        4.000E-02


  INCREMENT     5 STARTS. ATTEMPT NUMBER  1, TIME INCREMENT  1.500E-02
 
	SYMMETRIC DIRECT SPARSE SOLVER RUNNING ON
 	1 HOST:        1 MPI RANK  x 1 THREAD
 	NUMBER OF EQUATIONS:     24
 	NUMBER OF RHS:           1
 	NUMBER OF FLOPS:         4.900e+03

     CHECK POINT   START OF SOLVER    

     CHECK POINT  END OF SOLVER       

       ELAPSED USER TIME (SEC)      =  1.00000E-02
       ELAPSED SYSTEM TIME (SEC)    =   0.0000    
       ELAPSED TOTAL CPU TIME (SEC) =  1.00000E-02
       ELAPSED WALLCLOCK TIME (SEC) =          0

               CONVERGENCE CHECKS FOR EQUILIBRIUM ITERATION     1


 AVERAGE FORCE                      1.556E-03   TIME AVG. FORCE       8.699E-04
 LARGEST RESIDUAL FORCE            -2.089E-06   AT NODE          8   DOF  3
 LARGEST INCREMENT OF DISP.         1.500E-03   AT NODE          1   DOF  2
 LARGEST CORRECTION TO DISP.       -2.812E-06   AT NODE          8   DOF  3
          THE FORCE     EQUILIBRIUM EQUATIONS HAVE CONVERGED
          TIME INCREMENT MAY NOW INCREASE TO    2.250E-02

 ITERATION SUMMARY FOR THE INCREMENT:   1 TOTAL ITERATIONS, OF WHICH
   0 ARE SEVERE DISCONTINUITY ITERATIONS AND  1 ARE EQUILIBRIUM ITERATIONS.

 TIME INCREMENT COMPLETED  1.500E-02,  FRACTION OF STEP COMPLETED  5.500E-02
 STEP TIME COMPLETED       5.500E-02,  TOTAL TIME COMPLETED        5.500E-02


  INCREMENT     6 STARTS. ATTEMPT NUMBER  1, TIME INCREMENT  2.250E-02
 
	SYMMETRIC DIRECT SPARSE SOLVER RUNNING ON
 	1 HOST:        1 MPI RANK  x 1 THREAD
 	NUMBER OF EQUATIONS:     24
 	NUMBER OF RHS:           1
 	NUMBER OF FLOPS:         4.900e+03

     CHECK POINT   START OF SOLVER    

     CHECK POINT  END OF SOLVER       

       ELAPSED USER TIME (SEC)      =   0.0000    
       ELAPSED SYSTEM TIME (SEC)    =   0.0000    
       ELAPSED TOTAL CPU TIME (SEC) =   0.0000    
       ELAPSED WALLCLOCK TIME (SEC) =          0

               CONVERGENCE CHECKS FOR EQUILIBRIUM ITERATION     1


 AVERAGE FORCE                      2.221E-03   TIME AVG. FORCE       1.095E-03
 LARGEST RESIDUAL FORCE            -1.961E-06   AT NODE          3   DOF  3
 LARGEST INCREMENT OF DISP.         2.250E-03   AT NODE          1   DOF  2
 LARGEST CORRECTION TO DISP.       -4.107E-06   AT NODE          4   DOF  3
          THE FORCE     EQUILIBRIUM EQUATIONS HAVE CONVERGED
          TIME INCREMENT MAY NOW INCREASE TO    3.375E-02

 ITERATION SUMMARY FOR THE INCREMENT:   1 TOTAL ITERATIONS, OF WHICH
   0 ARE SEVERE DISCONTINUITY ITERATIONS AND  1 ARE EQUILIBRIUM ITERATIONS.

 TIME INCREMENT COMPLETED  2.250E-02,  FRACTION OF STEP COMPLETED  7.750E-02
 STEP TIME COMPLETED       7.750E-02,  TOTAL TIME COMPLETED        7.750E-02


  INCREMENT     7 STARTS. ATTEMPT NUMBER  1, TIME INCREMENT  3.375E-02
 
	SYMMETRIC DIRECT SPARSE SOLVER RUNNING ON
 	1 HOST:        1 MPI RANK  x 1 THREAD
 	NUMBER OF EQUATIONS:     24
 	NUMBER OF RHS:           1
 	NUMBER OF FLOPS:         4.900e+03

     CHECK POINT   START OF SOLVER    

     CHECK POINT  END OF SOLVER       

       ELAPSED USER TIME (SEC)      =   0.0000    
       ELAPSED SYSTEM TIME (SEC)    =   0.0000    
       ELAPSED TOTAL CPU TIME (SEC) =   0.0000    
       ELAPSED WALLCLOCK TIME (SEC) =          0

               CONVERGENCE CHECKS FOR EQUILIBRIUM ITERATION     1


 AVERAGE FORCE                      3.251E-03   TIME AVG. FORCE       1.403E-03
 LARGEST RESIDUAL FORCE            -1.934E-06   AT NODE          7   DOF  3
 LARGEST INCREMENT OF DISP.         3.375E-03   AT NODE          1   DOF  2
 LARGEST CORRECTION TO DISP.       -7.224E-06   AT NODE          4   DOF  3
          THE FORCE     EQUILIBRIUM EQUATIONS HAVE CONVERGED
          TIME INCREMENT MAY NOW INCREASE TO    5.063E-02

 ITERATION SUMMARY FOR THE INCREMENT:   1 TOTAL ITERATIONS, OF WHICH
   0 ARE SEVERE DISCONTINUITY ITERATIONS AND  1 ARE EQUILIBRIUM ITERATIONS.

 TIME INCREMENT COMPLETED  3.375E-02,  FRACTION OF STEP COMPLETED  0.111    
 STEP TIME COMPLETED       0.111    ,  TOTAL TIME COMPLETED        0.111    


  INCREMENT     8 STARTS. ATTEMPT NUMBER  1, TIME INCREMENT  5.063E-02
 
	SYMMETRIC DIRECT SPARSE SOLVER RUNNING ON
 	1 HOST:        1 MPI RANK  x 1 THREAD
 	NUMBER OF EQUATIONS:     24
 	NUMBER OF RHS:           1
 	NUMBER OF FLOPS:         4.900e+03

     CHECK POINT   START OF SOLVER    

     CHECK POINT  END OF SOLVER       

       ELAPSED USER TIME (SEC)      =   0.0000    
       ELAPSED SYSTEM TIME (SEC)    =   0.0000    
       ELAPSED TOTAL CPU TIME (SEC) =   0.0000    
       ELAPSED WALLCLOCK TIME (SEC) =          0

               CONVERGENCE CHECKS FOR EQUILIBRIUM ITERATION     1


 AVERAGE FORCE                      4.872E-03   TIME AVG. FORCE       1.837E-03
 LARGEST RESIDUAL FORCE             5.533E-06   AT NODE          4   DOF  1
 LARGEST INCREMENT OF DISP.         5.062E-03   AT NODE          1   DOF  2
 LARGEST CORRECTION TO DISP.        1.680E-05   AT NODE          2   DOF  1
          THE FORCE     EQUILIBRIUM EQUATIONS HAVE CONVERGED
          TIME INCREMENT MAY NOW INCREASE TO    7.594E-02

 ITERATION SUMMARY FOR THE INCREMENT:   1 TOTAL ITERATIONS, OF WHICH
   0 ARE SEVERE DISCONTINUITY ITERATIONS AND  1 ARE EQUILIBRIUM ITERATIONS.

 TIME INCREMENT COMPLETED  5.063E-02,  FRACTION OF STEP COMPLETED  0.162    
 STEP TIME COMPLETED       0.162    ,  TOTAL TIME COMPLETED        0.162    


  INCREMENT     9 STARTS. ATTEMPT NUMBER  1, TIME INCREMENT  7.594E-02
 
	SYMMETRIC DIRECT SPARSE SOLVER RUNNING ON
 	1 HOST:        1 MPI RANK  x 1 THREAD
 	NUMBER OF EQUATIONS:     24
 	NUMBER OF RHS:           1
 	NUMBER OF FLOPS:         4.900e+03

     CHECK POINT   START OF SOLVER    

     CHECK POINT  END OF SOLVER       

       ELAPSED USER TIME (SEC)      =   0.0000    
       ELAPSED SYSTEM TIME (SEC)    =   0.0000    
       ELAPSED TOTAL CPU TIME (SEC) =   0.0000    
       ELAPSED WALLCLOCK TIME (SEC) =          0

               CONVERGENCE CHECKS FOR EQUILIBRIUM ITERATION     1


 AVERAGE FORCE                      7.488E-03   TIME AVG. FORCE       2.465E-03
 LARGEST RESIDUAL FORCE             1.250E-05   AT NODE          2   DOF  1
 LARGEST INCREMENT OF DISP.         7.594E-03   AT NODE          1   DOF  2
 LARGEST CORRECTION TO DISP.        3.801E-05   AT NODE          4   DOF  1
          FORCE     EQUILIBRIUM NOT ACHIEVED WITHIN TOLERANCE.
 
	SYMMETRIC DIRECT SPARSE SOLVER RUNNING ON
 	1 HOST:        1 MPI RANK  x 1 THREAD
 	NUMBER OF EQUATIONS:     24
 	NUMBER OF RHS:           1
 	NUMBER OF FLOPS:         4.900e+03

     CHECK POINT   START OF SOLVER    

     CHECK POINT  END OF SOLVER       

       ELAPSED USER TIME (SEC)      =   0.0000    
       ELAPSED SYSTEM TIME (SEC)    =   0.0000    
       ELAPSED TOTAL CPU TIME (SEC) =   0.0000    
       ELAPSED WALLCLOCK TIME (SEC) =          0

               CONVERGENCE CHECKS FOR EQUILIBRIUM ITERATION     2


 AVERAGE FORCE                      7.488E-03   TIME AVG. FORCE       2.464E-03
 LARGEST RESIDUAL FORCE             3.921E-06   AT NODE          2   DOF  1
 LARGEST INCREMENT OF DISP.         7.594E-03   AT NODE          1   DOF  2
 LARGEST CORRECTION TO DISP.        3.142E-06   AT NODE          2   DOF  1
          THE FORCE     EQUILIBRIUM EQUATIONS HAVE CONVERGED
          TIME INCREMENT MAY NOW INCREASE TO    0.100    

 ITERATION SUMMARY FOR THE INCREMENT:   2 TOTAL ITERATIONS, OF WHICH
   0 ARE SEVERE DISCONTINUITY ITERATIONS AND  2 ARE EQUILIBRIUM ITERATIONS.

 TIME INCREMENT COMPLETED  7.594E-02,  FRACTION OF STEP COMPLETED  0.238    
 STEP TIME COMPLETED       0.238    ,  TOTAL TIME COMPLETED        0.238    


  INCREMENT    10 STARTS. ATTEMPT NUMBER  1, TIME INCREMENT  0.100    
 
	SYMMETRIC DIRECT SPARSE SOLVER RUNNING ON
 	1 HOST:        1 MPI RANK  x 1 THREAD
 	NUMBER OF EQUATIONS:     24
 	NUMBER OF RHS:           1
 	NUMBER OF FLOPS:         4.900e+03

     CHECK POINT   START OF SOLVER    

     CHECK POINT  END OF SOLVER       

       ELAPSED USER TIME (SEC)      =   0.0000    
       ELAPSED SYSTEM TIME (SEC)    =   0.0000    
       ELAPSED TOTAL CPU TIME (SEC) =   0.0000    
       ELAPSED WALLCLOCK TIME (SEC) =          0

               CONVERGENCE CHECKS FOR EQUILIBRIUM ITERATION     1


 AVERAGE FORCE                      1.130E-02   TIME AVG. FORCE       3.348E-03
 LARGEST RESIDUAL FORCE             2.076E-05   AT NODE          2   DOF  1
 LARGEST INCREMENT OF DISP.         1.000E-02   AT NODE          1   DOF  2
 LARGEST CORRECTION TO DISP.        6.847E-05   AT NODE          4   DOF  1
          FORCE     EQUILIBRIUM NOT ACHIEVED WITHIN TOLERANCE.
 
	SYMMETRIC DIRECT SPARSE SOLVER RUNNING ON
 	1 HOST:        1 MPI RANK  x 1 THREAD
 	NUMBER OF EQUATIONS:     24
 	NUMBER OF RHS:           1
 	NUMBER OF FLOPS:         4.900e+03

     CHECK POINT   START OF SOLVER    

     CHECK POINT  END OF SOLVER       

       ELAPSED USER TIME (SEC)      =  1.00000E-02
       ELAPSED SYSTEM TIME (SEC)    =   0.0000    
       ELAPSED TOTAL CPU TIME (SEC) =  1.00000E-02
       ELAPSED WALLCLOCK TIME (SEC) =          0

               CONVERGENCE CHECKS FOR EQUILIBRIUM ITERATION     2


 AVERAGE FORCE                      1.130E-02   TIME AVG. FORCE       3.348E-03
 LARGEST RESIDUAL FORCE             6.925E-06   AT NODE          2   DOF  1
 LARGEST INCREMENT OF DISP.         1.000E-02   AT NODE          1   DOF  2
 LARGEST CORRECTION TO DISP.        5.636E-06   AT NODE          2   DOF  1
          THE FORCE     EQUILIBRIUM EQUATIONS HAVE CONVERGED

 ITERATION SUMMARY FOR THE INCREMENT:   2 TOTAL ITERATIONS, OF WHICH
   0 ARE SEVERE DISCONTINUITY ITERATIONS AND  2 ARE EQUILIBRIUM ITERATIONS.

 TIME INCREMENT COMPLETED  0.100    ,  FRACTION OF STEP COMPLETED  0.338    
 STEP TIME COMPLETED       0.338    ,  TOTAL TIME COMPLETED        0.338    


  INCREMENT    11 STARTS. ATTEMPT NUMBER  1, TIME INCREMENT  0.100    
 
	SYMMETRIC DIRECT SPARSE SOLVER RUNNING ON
 	1 HOST:        1 MPI RANK  x 1 THREAD
 	NUMBER OF EQUATIONS:     24
 	NUMBER OF RHS:           1
 	NUMBER OF FLOPS:         4.900e+03

     CHECK POINT   START OF SOLVER    

     CHECK POINT  END OF SOLVER       

       ELAPSED USER TIME (SEC)      =   0.0000    
       ELAPSED SYSTEM TIME (SEC)    =   0.0000    
       ELAPSED TOTAL CPU TIME (SEC) =   0.0000    
       ELAPSED WALLCLOCK TIME (SEC) =          0

               CONVERGENCE CHECKS FOR EQUILIBRIUM ITERATION     1


 AVERAGE FORCE                      2.338E-02   TIME AVG. FORCE       5.169E-03
 LARGEST RESIDUAL FORCE             2.750E-05   AT NODE          2   DOF  1
 LARGEST INCREMENT OF DISP.         1.000E-02   AT NODE          1   DOF  2
 LARGEST CORRECTION TO DISP.        8.063E-05   AT NODE          2   DOF  1
          FORCE     EQUILIBRIUM NOT ACHIEVED WITHIN TOLERANCE.
 
	SYMMETRIC DIRECT SPARSE SOLVER RUNNING ON
 	1 HOST:        1 MPI RANK  x 1 THREAD
 	NUMBER OF EQUATIONS:     24
 	NUMBER OF RHS:           1
 	NUMBER OF FLOPS:         4.900e+03

     CHECK POINT   START OF SOLVER    

     CHECK POINT  END OF SOLVER       

       ELAPSED USER TIME (SEC)      =   0.0000    
       ELAPSED SYSTEM TIME (SEC)    =   0.0000    
       ELAPSED TOTAL CPU TIME (SEC) =   0.0000    
       ELAPSED WALLCLOCK TIME (SEC) =          0

               CONVERGENCE CHECKS FOR EQUILIBRIUM ITERATION     2


 AVERAGE FORCE                      1.559E-02   TIME AVG. FORCE       4.461E-03
 LARGEST RESIDUAL FORCE             1.231E-05   AT NODE          1   DOF  1
 LARGEST INCREMENT OF DISP.         1.000E-02   AT NODE          1   DOF  2
 LARGEST CORRECTION TO DISP.        1.006E-05   AT NODE          4   DOF  1
          THE FORCE     EQUILIBRIUM EQUATIONS HAVE CONVERGED

 ITERATION SUMMARY FOR THE INCREMENT:   2 TOTAL ITERATIONS, OF WHICH
   0 ARE SEVERE DISCONTINUITY ITERATIONS AND  2 ARE EQUILIBRIUM ITERATIONS.

 TIME INCREMENT COMPLETED  0.100    ,  FRACTION OF STEP COMPLETED  0.438    
 STEP TIME COMPLETED       0.438    ,  TOTAL TIME COMPLETED        0.438    


  INCREMENT    12 STARTS. ATTEMPT NUMBER  1, TIME INCREMENT  0.100    
 
	SYMMETRIC DIRECT SPARSE SOLVER RUNNING ON
 	1 HOST:        1 MPI RANK  x 1 THREAD
 	NUMBER OF EQUATIONS:     24
 	NUMBER OF RHS:           1
 	NUMBER OF FLOPS:         4.900e+03

     CHECK POINT   START OF SOLVER    

     CHECK POINT  END OF SOLVER       

       ELAPSED USER TIME (SEC)      =   0.0000    
       ELAPSED SYSTEM TIME (SEC)    =  1.00000E-02
       ELAPSED TOTAL CPU TIME (SEC) =  1.00000E-02
       ELAPSED WALLCLOCK TIME (SEC) =          0

               CONVERGENCE CHECKS FOR EQUILIBRIUM ITERATION     1


 AVERAGE FORCE                      2.041E-02   TIME AVG. FORCE       5.790E-03
 LARGEST RESIDUAL FORCE             3.131E-05   AT NODE          1   DOF  1
 LARGEST INCREMENT OF DISP.         1.000E-02   AT NODE          1   DOF  2
 LARGEST CORRECTION TO DISP.        8.307E-05   AT NODE          3   DOF  1
          FORCE     EQUILIBRIUM NOT ACHIEVED WITHIN TOLERANCE.
 
	SYMMETRIC DIRECT SPARSE SOLVER RUNNING ON
 	1 HOST:        1 MPI RANK  x 1 THREAD
 	NUMBER OF EQUATIONS:     24
 	NUMBER OF RHS:           1
 	NUMBER OF FLOPS:         4.900e+03

     CHECK POINT   START OF SOLVER    

     CHECK POINT  END OF SOLVER       

       ELAPSED USER TIME (SEC)      =  1.00000E-02
       ELAPSED SYSTEM TIME (SEC)    =   0.0000    
       ELAPSED TOTAL CPU TIME (SEC) =  1.00000E-02
       ELAPSED WALLCLOCK TIME (SEC) =          0

               CONVERGENCE CHECKS FOR EQUILIBRIUM ITERATION     2


 AVERAGE FORCE                      2.042E-02   TIME AVG. FORCE       5.790E-03
 LARGEST RESIDUAL FORCE             1.634E-05   AT NODE          2   DOF  1
 LARGEST INCREMENT OF DISP.         1.000E-02   AT NODE          1   DOF  2
 LARGEST CORRECTION TO DISP.        1.342E-05   AT NODE          3   DOF  1
          THE FORCE     EQUILIBRIUM EQUATIONS HAVE CONVERGED

 ITERATION SUMMARY FOR THE INCREMENT:   2 TOTAL ITERATIONS, OF WHICH
   0 ARE SEVERE DISCONTINUITY ITERATIONS AND  2 ARE EQUILIBRIUM ITERATIONS.

 TIME INCREMENT COMPLETED  0.100    ,  FRACTION OF STEP COMPLETED  0.538    
 STEP TIME COMPLETED       0.538    ,  TOTAL TIME COMPLETED        0.538    


  INCREMENT    13 STARTS. ATTEMPT NUMBER  1, TIME INCREMENT  0.100    
 
	SYMMETRIC DIRECT SPARSE SOLVER RUNNING ON
 	1 HOST:        1 MPI RANK  x 1 THREAD
 	NUMBER OF EQUATIONS:     24
 	NUMBER OF RHS:           1
 	NUMBER OF FLOPS:         4.900e+03

     CHECK POINT   START OF SOLVER    

     CHECK POINT  END OF SOLVER       

       ELAPSED USER TIME (SEC)      =   0.0000    
       ELAPSED SYSTEM TIME (SEC)    =   0.0000    
       ELAPSED TOTAL CPU TIME (SEC) =   0.0000    
       ELAPSED WALLCLOCK TIME (SEC) =          0

               CONVERGENCE CHECKS FOR EQUILIBRIUM ITERATION     1


 AVERAGE FORCE                      2.586E-02   TIME AVG. FORCE       7.334E-03
 LARGEST RESIDUAL FORCE             3.009E-05   AT NODE          2   DOF  1
 LARGEST INCREMENT OF DISP.         1.000E-02   AT NODE          1   DOF  2
 LARGEST CORRECTION TO DISP.        8.175E-05   AT NODE          3   DOF  1
          THE FORCE     EQUILIBRIUM EQUATIONS HAVE CONVERGED

 ITERATION SUMMARY FOR THE INCREMENT:   1 TOTAL ITERATIONS, OF WHICH
   0 ARE SEVERE DISCONTINUITY ITERATIONS AND  1 ARE EQUILIBRIUM ITERATIONS.

 TIME INCREMENT COMPLETED  0.100    ,  FRACTION OF STEP COMPLETED  0.638    
 STEP TIME COMPLETED       0.638    ,  TOTAL TIME COMPLETED        0.638    


  INCREMENT    14 STARTS. ATTEMPT NUMBER  1, TIME INCREMENT  0.100    
 
	SYMMETRIC DIRECT SPARSE SOLVER RUNNING ON
 	1 HOST:        1 MPI RANK  x 1 THREAD
 	NUMBER OF EQUATIONS:     24
 	NUMBER OF RHS:           1
 	NUMBER OF FLOPS:         4.900e+03

     CHECK POINT   START OF SOLVER    

     CHECK POINT  END OF SOLVER       

       ELAPSED USER TIME (SEC)      =   0.0000    
       ELAPSED SYSTEM TIME (SEC)    =   0.0000    
       ELAPSED TOTAL CPU TIME (SEC) =   0.0000    
       ELAPSED WALLCLOCK TIME (SEC) =          0

               CONVERGENCE CHECKS FOR EQUILIBRIUM ITERATION     1


 AVERAGE FORCE                      3.203E-02   TIME AVG. FORCE       9.098E-03
 LARGEST RESIDUAL FORCE             2.877E-05   AT NODE          2   DOF  1
 LARGEST INCREMENT OF DISP.         1.000E-02   AT NODE          1   DOF  2
 LARGEST CORRECTION TO DISP.        8.051E-05   AT NODE          1   DOF  1
          THE FORCE     EQUILIBRIUM EQUATIONS HAVE CONVERGED

 ITERATION SUMMARY FOR THE INCREMENT:   1 TOTAL ITERATIONS, OF WHICH
   0 ARE SEVERE DISCONTINUITY ITERATIONS AND  1 ARE EQUILIBRIUM ITERATIONS.

 TIME INCREMENT COMPLETED  0.100    ,  FRACTION OF STEP COMPLETED  0.738    
 STEP TIME COMPLETED       0.738    ,  TOTAL TIME COMPLETED        0.738    


  INCREMENT    15 STARTS. ATTEMPT NUMBER  1, TIME INCREMENT  0.100    
 
	SYMMETRIC DIRECT SPARSE SOLVER RUNNING ON
 	1 HOST:        1 MPI RANK  x 1 THREAD
 	NUMBER OF EQUATIONS:     24
 	NUMBER OF RHS:           1
 	NUMBER OF FLOPS:         4.900e+03

     CHECK POINT   START OF SOLVER    

     CHECK POINT  END OF SOLVER       

       ELAPSED USER TIME (SEC)      =   0.0000    
       ELAPSED SYSTEM TIME (SEC)    =   0.0000    
       ELAPSED TOTAL CPU TIME (SEC) =   0.0000    
       ELAPSED WALLCLOCK TIME (SEC) =          0

               CONVERGENCE CHECKS FOR EQUILIBRIUM ITERATION     1


 AVERAGE FORCE                      3.904E-02   TIME AVG. FORCE       1.109E-02
 LARGEST RESIDUAL FORCE             2.623E-05   AT NODE          4   DOF  1
 LARGEST INCREMENT OF DISP.         1.000E-02   AT NODE          1   DOF  2
 LARGEST CORRECTION TO DISP.        7.847E-05   AT NODE          3   DOF  1
          THE FORCE     EQUILIBRIUM EQUATIONS HAVE CONVERGED

 ITERATION SUMMARY FOR THE INCREMENT:   1 TOTAL ITERATIONS, OF WHICH
   0 ARE SEVERE DISCONTINUITY ITERATIONS AND  1 ARE EQUILIBRIUM ITERATIONS.

 TIME INCREMENT COMPLETED  0.100    ,  FRACTION OF STEP COMPLETED  0.838    
 STEP TIME COMPLETED       0.838    ,  TOTAL TIME COMPLETED        0.838    


  INCREMENT    16 STARTS. ATTEMPT NUMBER  1, TIME INCREMENT  0.100    
 
	SYMMETRIC DIRECT SPARSE SOLVER RUNNING ON
 	1 HOST:        1 MPI RANK  x 1 THREAD
 	NUMBER OF EQUATIONS:     24
 	NUMBER OF RHS:           1
 	NUMBER OF FLOPS:         4.900e+03

     CHECK POINT   START OF SOLVER    

     CHECK POINT  END OF SOLVER       

       ELAPSED USER TIME (SEC)      =   0.0000    
       ELAPSED SYSTEM TIME (SEC)    =   0.0000    
       ELAPSED TOTAL CPU TIME (SEC) =   0.0000    
       ELAPSED WALLCLOCK TIME (SEC) =          0

               CONVERGENCE CHECKS FOR EQUILIBRIUM ITERATION     1


 AVERAGE FORCE                      4.703E-02   TIME AVG. FORCE       1.334E-02
 LARGEST RESIDUAL FORCE             2.243E-05   AT NODE          2   DOF  1
 LARGEST INCREMENT OF DISP.         1.000E-02   AT NODE          1   DOF  2
 LARGEST CORRECTION TO DISP.        7.576E-05   AT NODE          2   DOF  1
          THE FORCE     EQUILIBRIUM EQUATIONS HAVE CONVERGED

 ITERATION SUMMARY FOR THE INCREMENT:   1 TOTAL ITERATIONS, OF WHICH
   0 ARE SEVERE DISCONTINUITY ITERATIONS AND  1 ARE EQUILIBRIUM ITERATIONS.

 TIME INCREMENT COMPLETED  0.100    ,  FRACTION OF STEP COMPLETED  0.938    
 STEP TIME COMPLETED       0.938    ,  TOTAL TIME COMPLETED        0.938    


  INCREMENT    17 STARTS. ATTEMPT NUMBER  1, TIME INCREMENT  6.219E-02
 
	SYMMETRIC DIRECT SPARSE SOLVER RUNNING ON
 	1 HOST:        1 MPI RANK  x 1 THREAD
 	NUMBER OF EQUATIONS:     24
 	NUMBER OF RHS:           1
 	NUMBER OF FLOPS:         4.900e+03

     CHECK POINT   START OF SOLVER    

     CHECK POINT  END OF SOLVER       

       ELAPSED USER TIME (SEC)      =   0.0000    
       ELAPSED SYSTEM TIME (SEC)    =   0.0000    
       ELAPSED TOTAL CPU TIME (SEC) =   0.0000    
       ELAPSED WALLCLOCK TIME (SEC) =          0

               CONVERGENCE CHECKS FOR EQUILIBRIUM ITERATION     1


 AVERAGE FORCE                      5.258E-02   TIME AVG. FORCE       1.565E-02
 LARGEST RESIDUAL FORCE             1.622E-05   AT NODE          3   DOF  1
 LARGEST INCREMENT OF DISP.         6.219E-03   AT NODE          1   DOF  2
 LARGEST CORRECTION TO DISP.        4.186E-05   AT NODE          4   DOF  1
          THE FORCE     EQUILIBRIUM EQUATIONS HAVE CONVERGED

 ITERATION SUMMARY FOR THE INCREMENT:   1 TOTAL ITERATIONS, OF WHICH
   0 ARE SEVERE DISCONTINUITY ITERATIONS AND  1 ARE EQUILIBRIUM ITERATIONS.

 TIME INCREMENT COMPLETED  6.219E-02,  FRACTION OF STEP COMPLETED   1.00    
 STEP TIME COMPLETED        1.00    ,  TOTAL TIME COMPLETED         1.00    


          THE ANALYSIS HAS BEEN COMPLETED



     ANALYSIS SUMMARY:
     TOTAL OF         17  INCREMENTS
                       0  CUTBACKS IN AUTOMATIC INCREMENTATION
                      34  ITERATIONS INCLUDING CONTACT ITERATIONS IF PRESENT
                      34  PASSES THROUGH THE EQUATION SOLVER OF WHICH 
                      34  INVOLVE MATRIX DECOMPOSITION, INCLUDING
                       0  DECOMPOSITION(S) OF THE MASS MATRIX
                       1  REORDERING OF EQUATIONS TO MINIMIZE WAVEFRONT
                       0  ADDITIONAL RESIDUAL EVALUATIONS FOR LINE SEARCHES
                       0  ADDITIONAL OPERATOR EVALUATIONS FOR LINE SEARCHES
                       0  WARNING MESSAGES DURING USER INPUT PROCESSING
                       1  WARNING MESSAGES DURING ANALYSIS
                       0  ANALYSIS WARNINGS ARE NUMERICAL PROBLEM MESSAGES
                       0  ANALYSIS WARNINGS ARE NEGATIVE EIGENVALUE MESSAGES
                       0  ERROR MESSAGES



     JOB TIME SUMMARY
       USER TIME (SEC)      =   1.9600    
       SYSTEM TIME (SEC)    =  9.00000E-02
       TOTAL CPU TIME (SEC) =   2.0500    
       WALLCLOCK TIME (SEC) =          2
