 Abaqus/Standard 2022                  DATE 26-Apr-2024 TIME 13:31:44
 SUMMARY OF JOB INFORMATION:
 STEP  INC ATT SEVERE EQUIL TOTAL  TOTAL      STEP       INC OF       DOF    IF
               DISCON ITERS ITERS  TIME/    TIME/LPF    TIME/LPF    MONITOR RIKS
               ITERS               FREQ
   1     1   1     0    10    10  0.0100     0.0100     0.01000   
   1     2   1     0     5     5  0.0200     0.0200     0.01000   
   1     3   1     0     1     1  0.0300     0.0300     0.01000   
   1     4   1     0     1     1  0.0400     0.0400     0.01000   
   1     5   1     0     1     1  0.0550     0.0550     0.01500   
   1     6   1     0     1     1  0.0775     0.0775     0.02250   
   1     7   1     0     1     1  0.111      0.111      0.03375   
   1     8   1     0     1     1  0.162      0.162      0.05063   
   1     9   1     0     2     2  0.238      0.238      0.07594   
   1    10   1     0     2     2  0.338      0.338      0.1000    
   1    11   1     0     2     2  0.438      0.438      0.1000    
   1    12   1     0     2     2  0.538      0.538      0.1000    
   1    13   1     0     1     1  0.638      0.638      0.1000    
   1    14   1     0     1     1  0.738      0.738      0.1000    
   1    15   1     0     1     1  0.838      0.838      0.1000    
   1    16   1     0     1     1  0.938      0.938      0.1000    
   1    17   1     0     1     1  1.00       1.00       0.06219   
                          
 THE ANALYSIS HAS COMPLETED SUCCESSFULLY
